Circuit: * C:\Users\rexina\Dropbox\Space\PW-Sat\pwsat2_suns\suns_2v0_simulations\SolarPanel_interface\resistor_simple.asc

Direct Newton iteration for .op point succeeded.
Semiconductor Device Operating Points:
                        --- Diodes ---
Name:        d1
Model: solararraydiode
Id:       -6.04e-10
Vd:       -4.48e+00
Req:       1.00e+12
CAP:       6.41e-11



Date: Tue Mar 31 12:54:30 2015
Total elapsed time: 3.478 seconds.

tnom = 27
temp = 27
method = trap
totiter = 4
traniter = 0
tranpoints = 0
accept = 0
rejected = 0
matrix size = 5
fillins = 0
solver = Normal
Matrix Compiler1: 230 bytes object code size
Matrix Compiler2: 355 bytes object code size

