Circuit: * D:\Dropbox\pwsat2_suns\suns_2v0_simulations\RTD_interface_SunS\PT1000_SunS_inrush_and_trans_time.asc

Per .tran options, skipping operating point for transient analysis.

Date: Mon May 25 19:46:24 2015
Total elapsed time: 65.249 seconds.

tnom = 27
temp = 27
method = modified trap
totiter = 1200392
traniter = 1200392
tranpoints = 600119
accept = 600086
rejected = 33
matrix size = 37
fillins = 42
solver = Normal
Thread vector: 17.8/14.3[4] 8.2/5.0[4] 2.0/2.0[1] 0.3/1.9[1]  2592/500
Matrix Compiler1: 5,54 KB object code size  1.4/0.6/[0.4]
Matrix Compiler2: 3,87 KB object code size  0.4/0.5/[0.4]


